4
Coordinates from ORCA-job h2co_bp86_def2-tzvp E -114.554293028420
  C       0.000000      0.000000      0.000000
  O       1.202900      0.000000      0.000000
  H      -0.587148      0.939049      0.000000
  H      -0.587148     -0.939049     -0.000000
4
Coordinates from ORCA-job h2co_bp86_def2-tzvp E -114.554486992396
  C       0.001808      0.000000      0.000000
  O       1.209782     -0.000000     -0.000000
  H      -0.591493      0.947422     -0.000000
  H      -0.591493     -0.947422     -0.000000
4
Coordinates from ORCA-job h2co_bp86_def2-tzvp E -114.554488486332
  C       0.002092      0.000000     -0.000000
  O       1.210606     -0.000000      0.000000
  H      -0.592047      0.947819      0.000000
  H      -0.592047     -0.947819      0.000000
4
Coordinates from ORCA-job h2co_bp86_def2-tzvp E -114.554488568925
  C       0.002215      0.000000      0.000000
  O       1.210770     -0.000000     -0.000000
  H      -0.592190      0.947697     -0.000000
  H      -0.592190     -0.947697     -0.000000
